Version 4
SHEET 1 1084 724
WIRE 192 96 -240 96
WIRE 256 96 192 96
WIRE 592 96 256 96
WIRE 656 96 592 96
WIRE 1040 96 656 96
WIRE 192 176 192 96
WIRE 656 176 656 96
WIRE -240 208 -240 96
WIRE 256 224 256 96
WIRE 256 224 192 224
WIRE 592 224 592 96
WIRE 656 224 592 224
WIRE 144 256 64 256
WIRE 784 256 704 256
WIRE 192 320 192 272
WIRE 656 320 656 272
WIRE -240 352 -240 288
WIRE 192 368 192 320
WIRE 256 368 192 368
WIRE 656 368 656 320
WIRE 656 368 576 368
WIRE 144 448 48 448
WIRE 192 448 192 416
WIRE 656 448 656 416
WIRE 800 448 704 448
WIRE 192 560 192 464
WIRE 432 560 192 560
WIRE 656 560 656 464
WIRE 656 560 432 560
WIRE 432 592 432 560
WIRE 400 704 -160 704
WIRE 432 704 432 672
WIRE 432 704 400 704
WIRE 1056 704 432 704
FLAG -240 352 0
FLAG -32 448 0
FLAG 400 704 0
FLAG -16 256 0
FLAG 192 320 Vy
FLAG 880 448 0
FLAG 864 256 0
FLAG 656 320 Vx
FLAG 432 560 Vz
FLAG 320 368 0
FLAG 512 368 0
SYMBOL voltage -240 192 R0
SYMATTR InstName V1
SYMATTR Value 3.3V
SYMBOL nmos4 144 368 R0
SYMATTR InstName M1
SYMATTR Value CMOSN
SYMATTR Value2 l=0.5u w=80u
SYMBOL voltage 64 448 R90
WINDOW 0 -32 56 VBottom 2
WINDOW 3 32 56 VTop 2
WINDOW 123 60 56 VTop 2
WINDOW 39 0 0 Left 0
SYMATTR InstName V3
SYMATTR Value SINE(1.65 0.165 100Meg)
SYMBOL pmos4 144 176 R0
SYMATTR InstName M2
SYMATTR Value CMOSP
SYMATTR Value2 l=0.5u w=8.3u
SYMBOL voltage 80 256 R90
WINDOW 0 -32 56 VBottom 2
WINDOW 3 32 56 VTop 2
WINDOW 123 0 0 Left 0
WINDOW 39 0 0 Left 0
SYMATTR InstName V2
SYMATTR Value 1.65V
SYMBOL nmos4 704 368 M0
SYMATTR InstName M3
SYMATTR Value CMOSN
SYMATTR Value2 l=0.5u w=80u
SYMBOL voltage 784 448 M90
WINDOW 0 -32 56 VBottom 2
WINDOW 3 32 56 VTop 2
WINDOW 123 0 0 Left 0
WINDOW 39 0 0 Left 0
SYMATTR InstName V4
SYMATTR Value 1.65V
SYMBOL pmos4 704 176 M0
SYMATTR InstName M4
SYMATTR Value CMOSP
SYMATTR Value2 l=0.5u w=8.3u
SYMBOL voltage 768 256 M90
WINDOW 0 -32 56 VBottom 2
WINDOW 3 32 56 VTop 2
WINDOW 123 0 0 Left 0
WINDOW 39 0 0 Left 0
SYMATTR InstName V5
SYMATTR Value 1.65V
SYMBOL current 432 592 R0
WINDOW 123 0 0 Left 0
WINDOW 39 0 0 Left 0
SYMATTR InstName I1
SYMATTR Value 0.2mA
SYMBOL cap 320 352 R90
WINDOW 0 0 32 VBottom 2
WINDOW 3 32 32 VTop 2
SYMATTR InstName C1
SYMATTR Value 0.945pF
SYMBOL cap 576 352 R90
WINDOW 0 0 32 VBottom 2
WINDOW 3 32 32 VTop 2
SYMATTR InstName C2
SYMATTR Value 0.945pF
TEXT -120 24 Left 2 !.include /home/akash/.wine/dosdevices/c:/users/akash/Desktop/ActiveFiltersPractice/tsmc035.lib
TEXT 672 680 Left 2 !.tran 0 100ns 0 0.01ns
