Version 4
SHEET 1 1112 744
WIRE 416 176 64 176
WIRE 960 176 768 176
WIRE 64 304 64 176
WIRE 416 336 416 176
WIRE 288 352 64 352
WIRE 768 352 768 176
WIRE 16 384 -176 384
WIRE 960 384 960 176
WIRE 896 400 768 400
WIRE 64 416 64 400
WIRE 720 432 576 432
WIRE -176 448 -176 384
WIRE 64 448 64 416
WIRE 288 464 288 352
WIRE 576 464 576 432
WIRE 768 496 768 448
WIRE 896 496 896 400
WIRE 896 496 768 496
WIRE 768 528 768 496
WIRE 960 528 960 464
WIRE -176 560 -176 528
WIRE 64 560 64 528
FLAG 288 464 0
FLAG -176 560 0
FLAG 416 416 0
FLAG 64 560 0
FLAG 960 528 0
FLAG 576 544 0
FLAG 768 528 0
FLAG 64 416 Vx
SYMBOL nmos4 16 304 R0
SYMATTR InstName M1
SYMATTR Value TSMC35N
SYMATTR Value2 l=0.5u w=1.77u m=8
SYMBOL voltage -176 432 R0
WINDOW 123 0 0 Left 0
WINDOW 39 0 0 Left 0
SYMATTR InstName V1
SYMATTR Value 1.65V
SYMBOL voltage 416 320 R0
WINDOW 123 0 0 Left 0
WINDOW 39 0 0 Left 0
SYMATTR InstName V2
SYMATTR Value 1.65V
SYMBOL current 64 448 R0
WINDOW 123 0 0 Left 0
WINDOW 39 0 0 Left 0
SYMATTR InstName I1
SYMATTR Value 0.13mA
SYMBOL voltage 960 368 R0
SYMATTR InstName V3
SYMATTR Value 0.555601V
SYMBOL nmos4 720 352 R0
SYMATTR InstName M2
SYMATTR Value TSMC35N
SYMATTR Value2 l=0.5u w=1.33u m=16
SYMBOL voltage 576 448 R0
WINDOW 123 0 0 Left 0
WINDOW 39 0 0 Left 0
SYMATTR InstName V4
SYMATTR Value 1V
TEXT -144 24 Left 2 !.include /home/akash/.wine/dosdevices/c:/users/akash/Desktop/ActiveFiltersPractice/tsmc035.lib
TEXT 416 728 Left 2 !.op
