Version 4
SHEET 1 1260 4660
WIRE 496 0 400 0
WIRE 528 0 496 0
WIRE 640 0 608 0
WIRE 400 64 400 0
WIRE 496 112 496 0
WIRE 496 112 400 112
WIRE 208 144 144 144
WIRE 352 144 288 144
WIRE 400 176 400 160
WIRE 400 288 400 256
FLAG 400 288 0
FLAG 144 144 0
FLAG 640 0 0
SYMBOL pmos4 352 64 R0
SYMATTR InstName M1
SYMATTR Value TSMC35P
SYMATTR Value2 l=0.5u w=5u
SYMBOL voltage 400 160 R0
WINDOW 123 0 0 Left 0
WINDOW 39 0 0 Left 0
SYMATTR InstName V1
SYMATTR Value 1.65V
SYMBOL voltage 304 144 R90
WINDOW 0 -32 56 VBottom 2
WINDOW 3 32 56 VTop 2
WINDOW 123 0 0 Left 0
WINDOW 39 0 0 Left 0
SYMATTR InstName V2
SYMATTR Value 1.65V
SYMBOL voltage 512 0 R270
WINDOW 0 32 56 VTop 2
WINDOW 3 -32 56 VBottom 2
WINDOW 123 0 0 Left 0
WINDOW 39 0 0 Left 0
SYMATTR InstName V3
SYMATTR Value 3.3
TEXT 304 408 Left 2 !.dc V1 0 3.3 0.0001
TEXT -88 -296 Left 2 !.include /home/akash/.wine/dosdevices/c:/users/akash/Desktop/ActiveFiltersPractice/tsmc035.lib
TEXT 240 -88 Left 2 ;PMOS Output Characteristics
